<?xml version="1.0" encoding="UTF-8"?>

<!-- generated on 2025-10-30 13:36:33 by Eclipse SUMO netedit Version 1.24.0
<neteditConfiguration xmlns:xsi="http://www.w3.org/2001/XMLSchema-instance" xsi:noNamespaceSchemaLocation="http://sumo.dlr.de/xsd/neteditConfiguration.xsd">

    <input>
        <sumo-net-file value="D:\My Project\F\Fmap.net.xml"/>
    </input>

    <output>
        <output-file value="D:\My Project\F\Fmap.net.xml"/>
    </output>

    <processing>
        <geometry.min-radius.fix.railways value="false"/>
        <geometry.avoid-overlap value="false"/>
        <geometry.max-grade.fix value="false"/>
        <offset.disable-normalization value="true"/>
        <lefthand value="0"/>
    </processing>

    <junctions>
        <no-internal-links value="false"/>
        <no-turnarounds value="true"/>
        <junctions.corner-detail value="5"/>
        <junctions.limit-turn-speed value="5.50"/>
        <rectangular-lane-cut value="0"/>
    </junctions>

    <pedestrian>
        <walkingareas value="1"/>
    </pedestrian>

</neteditConfiguration>
-->

<net version="1.20" junctionCornerDetail="5" walkingareas="true" limitTurnSpeed="5.50" avoidOverlap="0" xmlns:xsi="http://www.w3.org/2001/XMLSchema-instance" xsi:noNamespaceSchemaLocation="http://sumo.dlr.de/xsd/net_file.xsd">

    <location netOffset="-228919.74,-2512442.58" convBoundary="152.11,0.00,1081.83,1494.43" origBoundary="90.361162,22.697627,90.374754,22.711002" projParameter="+proj=utm +zone=46 +ellps=WGS84 +datum=WGS84 +units=m +no_defs"/>

    <type id="highway.primary" priority="12" numLanes="2" speed="27.78" disallow="tram rail_urban rail rail_electric rail_fast ship container cable_car subway aircraft wheelchair scooter drone" oneway="0"/>
    <type id="highway.residential" priority="3" numLanes="1" speed="13.89" disallow="tram rail_urban rail rail_electric rail_fast ship container cable_car subway aircraft wheelchair scooter drone" oneway="0"/>
    <type id="highway.unclassified" priority="4" numLanes="1" speed="13.89" disallow="tram rail_urban rail rail_electric rail_fast ship container cable_car subway aircraft wheelchair scooter drone" oneway="0"/>

    <edge id=":10775025338_w0" function="walkingarea">
        <lane id=":10775025338_w0_0" index="0" allow="pedestrian" speed="2.78" length="9.60" width="12.80" shape="1081.83,457.40 1082.97,463.70 1080.69,451.10 1081.83,457.40"/>
    </edge>
    <edge id=":2403131872_0" function="internal">
        <lane id=":2403131872_0_0" index="0" disallow="tram rail_urban rail rail_electric rail_fast ship container cable_car subway aircraft wheelchair scooter drone" speed="27.78" length="20.82" shape="914.27,497.93 913.71,491.20 913.90,485.68 914.22,481.08 914.01,477.15"/>
    </edge>
    <edge id=":2403131872_1" function="internal">
        <lane id=":2403131872_1_0" index="0" disallow="tram rail_urban rail rail_electric rail_fast ship container cable_car subway aircraft wheelchair scooter drone" speed="9.30" length="19.15" shape="917.43,497.44 917.37,492.21 918.98,488.17 922.27,485.33 927.24,483.69"/>
    </edge>
    <edge id=":2403131872_2" function="internal">
        <lane id=":2403131872_2_0" index="0" disallow="tram rail_urban rail rail_electric rail_fast ship container cable_car subway aircraft wheelchair scooter drone" speed="3.65" length="1.44" shape="917.43,497.44 918.04,496.13"/>
    </edge>
    <edge id=":2403131872_11" function="internal">
        <lane id=":2403131872_11_0" index="0" disallow="tram rail_urban rail rail_electric rail_fast ship container cable_car subway aircraft wheelchair scooter drone" speed="3.65" length="3.23" shape="918.04,496.13 918.77,495.61 919.62,495.89 920.60,496.95"/>
    </edge>
    <edge id=":2403131872_3" function="internal">
        <lane id=":2403131872_3_0" index="0" disallow="tram rail_urban rail rail_electric rail_fast ship container cable_car subway aircraft wheelchair scooter drone" speed="6.56" length="9.02" shape="928.37,489.99 926.04,490.76 924.49,492.10 923.73,494.00 923.76,496.46"/>
        <lane id=":2403131872_3_1" index="1" disallow="tram rail_urban rail rail_electric rail_fast ship container cable_car subway aircraft wheelchair scooter drone" speed="8.05" length="14.08" shape="927.81,486.84 924.15,488.05 921.74,490.13 920.55,493.10 920.60,496.95"/>
    </edge>
    <edge id=":2403131872_5" function="internal">
        <lane id=":2403131872_5_0" index="0" disallow="tram rail_urban rail rail_electric rail_fast ship container cable_car subway aircraft wheelchair scooter drone" speed="9.23" length="2.51" shape="927.81,486.84 925.30,486.92"/>
    </edge>
    <edge id=":2403131872_6" function="internal">
        <lane id=":2403131872_6_0" index="0" disallow="tram rail_urban rail rail_electric rail_fast ship container cable_car subway aircraft wheelchair scooter drone" speed="3.65" length="1.30" shape="927.81,486.84 926.61,486.32"/>
    </edge>
    <edge id=":2403131872_12" function="internal">
        <lane id=":2403131872_12_0" index="0" disallow="tram rail_urban rail rail_electric rail_fast ship container cable_car subway aircraft wheelchair scooter drone" speed="9.23" length="16.71" shape="925.30,486.92 922.58,487.02 918.54,485.47 915.68,482.18 914.01,477.15"/>
    </edge>
    <edge id=":2403131872_13" function="internal">
        <lane id=":2403131872_13_0" index="0" disallow="tram rail_urban rail rail_electric rail_fast ship container cable_car subway aircraft wheelchair scooter drone" speed="3.65" length="3.37" shape="926.61,486.32 926.48,486.26 925.95,485.55 926.20,484.69 927.24,483.69"/>
    </edge>
    <edge id=":2403131872_7" function="internal">
        <lane id=":2403131872_7_0" index="0" disallow="tram rail_urban rail rail_electric rail_fast ship container cable_car subway aircraft wheelchair scooter drone" speed="7.29" length="11.59" shape="917.16,476.58 918.13,478.88 920.04,480.32 922.88,480.87 926.67,480.54"/>
    </edge>
    <edge id=":2403131872_8" function="internal">
        <lane id=":2403131872_8_0" index="0" disallow="tram rail_urban rail rail_electric rail_fast ship container cable_car subway aircraft wheelchair scooter drone" speed="27.78" length="20.83" shape="917.16,476.58 918.35,480.37 920.22,484.66 922.21,489.87 923.76,496.46"/>
        <lane id=":2403131872_8_1" index="1" disallow="tram rail_urban rail rail_electric rail_fast ship container cable_car subway aircraft wheelchair scooter drone" speed="27.78" length="20.83" shape="917.16,476.58 920.60,496.95"/>
    </edge>
    <edge id=":2403131872_10" function="internal">
        <lane id=":2403131872_10_0" index="0" disallow="tram rail_urban rail rail_electric rail_fast ship container cable_car subway aircraft wheelchair scooter drone" speed="3.65" length="4.67" shape="917.16,476.58 916.59,477.90 915.87,478.44 915.01,478.19 914.01,477.15"/>
    </edge>
    <edge id=":2403131872_w0" function="walkingarea">
        <lane id=":2403131872_w0_0" index="0" allow="pedestrian" speed="2.78" length="15.28" width="12.80" shape="912.69,498.17 925.34,496.21 925.44,493.94 925.86,493.08 926.54,492.39 927.47,491.89 928.66,491.56 926.38,478.96 924.25,479.24 922.45,479.22 921.00,478.92 919.90,478.33 919.14,477.45 918.73,476.29 912.44,477.44 912.99,481.80 912.98,485.07 912.67,487.79 912.33,490.51 912.25,493.79"/>
    </edge>
    <edge id=":2403133947_0" function="internal">
        <lane id=":2403133947_0_0" index="0" disallow="tram rail_urban rail rail_electric rail_fast ship container cable_car subway aircraft wheelchair scooter drone" speed="3.65" length="4.67" shape="844.81,0.77 844.93,-0.67 845.44,-1.40 846.34,-1.44 847.61,-0.77"/>
    </edge>
    <edge id=":2439051345_0" function="internal">
        <lane id=":2439051345_0_0" index="0" disallow="tram rail_urban rail rail_electric rail_fast ship container cable_car subway aircraft wheelchair scooter drone" speed="27.78" length="4.27" shape="918.85,532.83 921.54,529.41"/>
        <lane id=":2439051345_0_1" index="1" disallow="tram rail_urban rail rail_electric rail_fast ship container cable_car subway aircraft wheelchair scooter drone" speed="27.78" length="4.27" shape="921.99,532.19 924.71,529.01"/>
    </edge>
    <edge id=":2439051345_2" function="internal">
        <lane id=":2439051345_2_0" index="0" disallow="tram rail_urban rail rail_electric rail_fast ship container cable_car subway aircraft wheelchair scooter drone" speed="3.65" length="4.67" shape="921.99,532.19 922.54,530.86 923.24,530.31 924.10,530.54 925.13,531.56"/>
    </edge>
    <edge id=":2439051345_w0" function="walkingarea">
        <lane id=":2439051345_w0_0" index="0" allow="pedestrian" speed="2.78" length="6.95" width="12.80" shape="917.29,533.15 929.83,530.60 926.30,528.82 919.95,529.60"/>
    </edge>
    <edge id=":2816930322_0" function="internal">
        <lane id=":2816930322_0_0" index="0" disallow="tram rail_urban rail rail_electric rail_fast ship container cable_car subway aircraft wheelchair scooter drone" speed="16.67" length="18.60" shape="748.90,434.15 745.23,434.59 741.39,435.64 736.90,437.34 731.28,439.76"/>
    </edge>
    <edge id=":2816930322_1" function="internal">
        <lane id=":2816930322_1_0" index="0" disallow="tram rail_urban rail rail_electric rail_fast ship container cable_car subway aircraft wheelchair scooter drone" speed="8.41" length="21.69" shape="748.90,434.15 742.50,433.55 738.90,431.09 738.11,426.77 740.13,420.58"/>
    </edge>
    <edge id=":2816930322_2" function="internal">
        <lane id=":2816930322_2_0" index="0" disallow="tram rail_urban rail rail_electric rail_fast ship container cable_car subway aircraft wheelchair scooter drone" speed="3.65" length="4.67" shape="748.90,434.15 747.67,433.40 747.24,432.62 747.61,431.80 748.77,430.95"/>
    </edge>
    <edge id=":2816930322_3" function="internal">
        <lane id=":2816930322_3_0" index="0" disallow="tram rail_urban rail rail_electric rail_fast ship container cable_car subway aircraft wheelchair scooter drone" speed="5.78" length="9.50" shape="745.18,424.85 744.25,427.63 744.54,429.57 746.05,430.68 748.77,430.95"/>
    </edge>
    <edge id=":2816930322_4" function="internal">
        <lane id=":2816930322_4_0" index="0" disallow="tram rail_urban rail rail_electric rail_fast ship container cable_car subway aircraft wheelchair scooter drone" speed="16.27" length="20.39" shape="745.18,424.85 742.47,430.42 740.04,434.17 736.70,436.99 731.28,439.76"/>
        <lane id=":2816930322_4_1" index="1" disallow="tram rail_urban rail rail_electric rail_fast ship container cable_car subway aircraft wheelchair scooter drone" speed="15.71" length="20.39" shape="742.65,422.72 740.16,427.99 738.04,431.54 735.05,434.21 729.99,436.83"/>
    </edge>
    <edge id=":2816930322_6" function="internal">
        <lane id=":2816930322_6_0" index="0" disallow="tram rail_urban rail rail_electric rail_fast ship container cable_car subway aircraft wheelchair scooter drone" speed="3.69" length="1.30" shape="742.65,422.72 741.40,423.08"/>
    </edge>
    <edge id=":2816930322_11" function="internal">
        <lane id=":2816930322_11_0" index="0" disallow="tram rail_urban rail rail_electric rail_fast ship container cable_car subway aircraft wheelchair scooter drone" speed="3.69" length="3.53" shape="741.40,423.08 741.22,423.13 740.32,422.91 739.96,422.06 740.13,420.58"/>
    </edge>
    <edge id=":2816930322_7" function="internal">
        <lane id=":2816930322_7_0" index="0" disallow="tram rail_urban rail rail_electric rail_fast ship container cable_car subway aircraft wheelchair scooter drone" speed="14.53" length="17.49" shape="727.41,430.97 731.63,428.66 733.97,426.22 735.58,423.02 737.60,418.45"/>
        <lane id=":2816930322_7_1" index="1" disallow="tram rail_urban rail rail_electric rail_fast ship container cable_car subway aircraft wheelchair scooter drone" speed="15.13" length="17.49" shape="728.70,433.90 733.34,431.44 736.00,428.88 737.87,425.50 740.13,420.58"/>
    </edge>
    <edge id=":2816930322_9" function="internal">
        <lane id=":2816930322_9_0" index="0" disallow="tram rail_urban rail rail_electric rail_fast ship container cable_car subway aircraft wheelchair scooter drone" speed="16.67" length="4.70" shape="728.70,433.90 733.15,432.39"/>
    </edge>
    <edge id=":2816930322_10" function="internal">
        <lane id=":2816930322_10_0" index="0" disallow="tram rail_urban rail rail_electric rail_fast ship container cable_car subway aircraft wheelchair scooter drone" speed="3.65" length="1.44" shape="728.70,433.90 730.12,434.15"/>
    </edge>
    <edge id=":2816930322_12" function="internal">
        <lane id=":2816930322_12_0" index="0" disallow="tram rail_urban rail rail_electric rail_fast ship container cable_car subway aircraft wheelchair scooter drone" speed="16.67" length="15.78" shape="733.15,432.39 735.00,431.77 740.30,430.99 744.81,430.94 748.77,430.95"/>
    </edge>
    <edge id=":2816930322_13" function="internal">
        <lane id=":2816930322_13_0" index="0" disallow="tram rail_urban rail rail_electric rail_fast ship container cable_car subway aircraft wheelchair scooter drone" speed="3.65" length="3.23" shape="730.12,434.15 730.81,434.72 730.77,435.61 729.99,436.83"/>
    </edge>
    <edge id=":2816930322_w0" function="walkingarea">
        <lane id=":2816930322_w0_0" index="0" allow="pedestrian" speed="2.78" length="15.64" width="12.80" shape="748.97,435.75 748.70,429.36 746.68,429.05 746.14,428.58 745.92,427.90 746.02,427.02 746.44,425.92 736.34,417.38 734.96,420.48 733.94,422.93 732.95,424.89 731.65,426.53 729.70,428.01 726.77,429.50 731.93,441.22 735.41,439.59 738.00,438.28 740.17,437.27 742.40,436.53 745.17,436.04"/>
    </edge>
    <edge id=":2816930331_0" function="internal">
        <lane id=":2816930331_0_0" index="0" disallow="tram rail_urban rail rail_electric rail_fast ship container cable_car subway aircraft wheelchair scooter drone" speed="6.81" length="9.39" shape="885.60,318.90 884.82,316.57 883.42,314.99 881.40,314.16 878.76,314.06"/>
    </edge>
    <edge id=":2816930331_1" function="internal">
        <lane id=":2816930331_1_0" index="0" disallow="tram rail_urban rail rail_electric rail_fast ship container cable_car subway aircraft wheelchair scooter drone" speed="27.78" length="14.38" shape="885.60,318.90 883.26,304.71"/>
    </edge>
    <edge id=":2816930331_2" function="internal">
        <lane id=":2816930331_2_0" index="0" disallow="tram rail_urban rail rail_electric rail_fast ship container cable_car subway aircraft wheelchair scooter drone" speed="3.65" length="1.44" shape="885.60,318.90 886.18,317.58"/>
    </edge>
    <edge id=":2816930331_9" function="internal">
        <lane id=":2816930331_9_0" index="0" disallow="tram rail_urban rail rail_electric rail_fast ship container cable_car subway aircraft wheelchair scooter drone" speed="3.65" length="3.23" shape="886.18,317.58 886.90,317.04 887.76,317.30 888.75,318.34"/>
    </edge>
    <edge id=":2816930331_3" function="internal">
        <lane id=":2816930331_3_0" index="0" disallow="tram rail_urban rail rail_electric rail_fast ship container cable_car subway aircraft wheelchair scooter drone" speed="27.78" length="14.31" shape="886.42,304.22 888.75,318.34"/>
    </edge>
    <edge id=":2816930331_4" function="internal">
        <lane id=":2816930331_4_0" index="0" disallow="tram rail_urban rail rail_electric rail_fast ship container cable_car subway aircraft wheelchair scooter drone" speed="7.90" length="3.98" shape="886.42,304.22 886.46,308.20"/>
    </edge>
    <edge id=":2816930331_5" function="internal">
        <lane id=":2816930331_5_0" index="0" disallow="tram rail_urban rail rail_electric rail_fast ship container cable_car subway aircraft wheelchair scooter drone" speed="3.65" length="1.44" shape="886.42,304.22 885.81,305.53"/>
    </edge>
    <edge id=":2816930331_10" function="internal">
        <lane id=":2816930331_10_0" index="0" disallow="tram rail_urban rail rail_electric rail_fast ship container cable_car subway aircraft wheelchair scooter drone" speed="7.90" length="10.44" shape="886.46,308.20 885.20,311.17 882.63,313.13 878.76,314.06"/>
    </edge>
    <edge id=":2816930331_11" function="internal">
        <lane id=":2816930331_11_0" index="0" disallow="tram rail_urban rail rail_electric rail_fast ship container cable_car subway aircraft wheelchair scooter drone" speed="3.65" length="3.23" shape="885.81,305.53 885.08,306.05 884.23,305.77 883.26,304.71"/>
    </edge>
    <edge id=":2816930331_6" function="internal">
        <lane id=":2816930331_6_0" index="0" disallow="tram rail_urban rail rail_electric rail_fast ship container cable_car subway aircraft wheelchair scooter drone" speed="6.38" length="9.04" shape="878.46,310.88 880.89,310.29 882.49,309.07 883.28,307.21 883.26,304.71"/>
    </edge>
    <edge id=":2816930331_7" function="internal">
        <lane id=":2816930331_7_0" index="0" disallow="tram rail_urban rail rail_electric rail_fast ship container cable_car subway aircraft wheelchair scooter drone" speed="8.26" length="14.26" shape="878.46,310.88 882.41,311.03 885.45,312.32 887.56,314.76 888.75,318.34"/>
    </edge>
    <edge id=":2816930331_8" function="internal">
        <lane id=":2816930331_8_0" index="0" disallow="tram rail_urban rail rail_electric rail_fast ship container cable_car subway aircraft wheelchair scooter drone" speed="3.65" length="4.67" shape="878.46,310.88 879.73,311.56 880.20,312.32 879.88,313.15 878.76,314.06"/>
    </edge>
    <edge id=":2816930331_w0" function="walkingarea">
        <lane id=":2816930331_w0_0" index="0" allow="pedestrian" speed="2.78" length="10.10" width="6.40" shape="884.03,319.18 890.33,318.06 888.00,303.97 881.68,304.95 881.57,307.19 881.14,308.01 880.45,308.64 879.51,309.06 878.31,309.29 878.91,315.66 881.45,315.86 882.40,316.33 883.15,317.03 883.69,317.98"/>
    </edge>
    <edge id=":2816940057_0" function="internal">
        <lane id=":2816940057_0_0" index="0" disallow="tram rail_urban rail rail_electric rail_fast ship container cable_car subway aircraft wheelchair scooter drone" speed="6.49" length="9.03" shape="905.88,432.61 905.10,430.26 903.75,428.73 901.84,428.02 899.36,428.13"/>
    </edge>
    <edge id=":2816940057_1" function="internal">
        <lane id=":2816940057_1_0" index="0" disallow="tram rail_urban rail rail_electric rail_fast ship container cable_car subway aircraft wheelchair scooter drone" speed="27.78" length="14.40" shape="905.88,432.61 903.30,418.44"/>
    </edge>
    <edge id=":2816940057_2" function="internal">
        <lane id=":2816940057_2_0" index="0" disallow="tram rail_urban rail rail_electric rail_fast ship container cable_car subway aircraft wheelchair scooter drone" speed="3.65" length="1.44" shape="905.88,432.61 906.45,431.28"/>
    </edge>
    <edge id=":2816940057_9" function="internal">
        <lane id=":2816940057_9_0" index="0" disallow="tram rail_urban rail rail_electric rail_fast ship container cable_car subway aircraft wheelchair scooter drone" speed="3.65" length="3.23" shape="906.45,431.28 907.17,430.75 908.03,431.00 909.03,432.03"/>
    </edge>
    <edge id=":2816940057_3" function="internal">
        <lane id=":2816940057_3_0" index="0" disallow="tram rail_urban rail rail_electric rail_fast ship container cable_car subway aircraft wheelchair scooter drone" speed="27.78" length="14.40" shape="906.44,417.87 909.03,432.03"/>
    </edge>
    <edge id=":2816940057_4" function="internal">
        <lane id=":2816940057_4_0" index="0" disallow="tram rail_urban rail rail_electric rail_fast ship container cable_car subway aircraft wheelchair scooter drone" speed="8.02" length="4.06" shape="906.44,417.87 906.59,421.75 906.53,421.91"/>
    </edge>
    <edge id=":2816940057_5" function="internal">
        <lane id=":2816940057_5_0" index="0" disallow="tram rail_urban rail rail_electric rail_fast ship container cable_car subway aircraft wheelchair scooter drone" speed="3.65" length="1.44" shape="906.44,417.87 905.87,419.19"/>
    </edge>
    <edge id=":2816940057_10" function="internal">
        <lane id=":2816940057_10_0" index="0" disallow="tram rail_urban rail rail_electric rail_fast ship container cable_car subway aircraft wheelchair scooter drone" speed="8.02" length="10.14" shape="906.53,421.91 905.46,424.75 903.05,426.88 899.36,428.13"/>
    </edge>
    <edge id=":2816940057_11" function="internal">
        <lane id=":2816940057_11_0" index="0" disallow="tram rail_urban rail rail_electric rail_fast ship container cable_car subway aircraft wheelchair scooter drone" speed="3.65" length="3.23" shape="905.87,419.19 905.16,419.73 904.30,419.48 903.30,418.44"/>
    </edge>
    <edge id=":2816940057_6" function="internal">
        <lane id=":2816940057_6_0" index="0" disallow="tram rail_urban rail rail_electric rail_fast ship container cable_car subway aircraft wheelchair scooter drone" speed="6.53" length="9.06" shape="898.77,424.99 901.13,424.19 902.67,422.83 903.39,420.91 903.30,418.44"/>
    </edge>
    <edge id=":2816940057_7" function="internal">
        <lane id=":2816940057_7_0" index="0" disallow="tram rail_urban rail rail_electric rail_fast ship container cable_car subway aircraft wheelchair scooter drone" speed="7.99" length="14.21" shape="898.77,424.99 902.66,424.81 905.67,425.93 907.79,428.34 909.03,432.03"/>
    </edge>
    <edge id=":2816940057_8" function="internal">
        <lane id=":2816940057_8_0" index="0" disallow="tram rail_urban rail rail_electric rail_fast ship container cable_car subway aircraft wheelchair scooter drone" speed="3.65" length="4.67" shape="898.77,424.99 900.10,425.55 900.64,426.26 900.39,427.12 899.36,428.13"/>
    </edge>
    <edge id=":2816940057_w0" function="walkingarea">
        <lane id=":2816940057_w0_0" index="0" allow="pedestrian" speed="2.78" length="10.03" width="6.40" shape="904.31,432.90 910.60,431.75 908.02,417.58 901.72,418.73 901.68,421.00 901.27,421.87 900.60,422.56 899.67,423.08 898.47,423.41 899.66,429.70 901.92,429.73 902.79,430.13 903.47,430.79 903.98,431.71"/>
    </edge>
    <edge id=":3555395938_0" function="internal">
        <lane id=":3555395938_0_0" index="0" disallow="tram rail_urban rail rail_electric rail_fast ship container cable_car subway aircraft wheelchair scooter drone" speed="27.78" length="0.28" shape="921.78,547.25 921.73,546.98"/>
        <lane id=":3555395938_0_1" index="1" disallow="tram rail_urban rail rail_electric rail_fast ship container cable_car subway aircraft wheelchair scooter drone" speed="27.78" length="0.28" shape="924.92,546.63 924.86,546.34"/>
    </edge>
    <edge id=":3555395938_2" function="internal">
        <lane id=":3555395938_2_0" index="0" disallow="tram rail_urban rail rail_electric rail_fast ship container cable_car subway aircraft wheelchair scooter drone" speed="3.65" length="2.34" shape="924.92,546.63 925.47,545.29 926.18,544.75"/>
    </edge>
    <edge id=":3555395938_6" function="internal">
        <lane id=":3555395938_6_0" index="0" disallow="tram rail_urban rail rail_electric rail_fast ship container cable_car subway aircraft wheelchair scooter drone" speed="3.65" length="2.34" shape="926.18,544.75 927.04,544.98 928.06,546.01"/>
    </edge>
    <edge id=":3555395938_3" function="internal">
        <lane id=":3555395938_3_0" index="0" disallow="tram rail_urban rail rail_electric rail_fast ship container cable_car subway aircraft wheelchair scooter drone" speed="27.78" length="0.31" shape="931.13,545.07 931.20,545.38"/>
        <lane id=":3555395938_3_1" index="1" disallow="tram rail_urban rail rail_electric rail_fast ship container cable_car subway aircraft wheelchair scooter drone" speed="27.78" length="0.31" shape="928.00,545.71 928.06,546.01"/>
    </edge>
    <edge id=":3555395938_5" function="internal">
        <lane id=":3555395938_5_0" index="0" disallow="tram rail_urban rail rail_electric rail_fast ship container cable_car subway aircraft wheelchair scooter drone" speed="3.65" length="2.34" shape="928.00,545.71 927.45,547.04 926.75,547.59"/>
    </edge>
    <edge id=":3555395938_7" function="internal">
        <lane id=":3555395938_7_0" index="0" disallow="tram rail_urban rail rail_electric rail_fast ship container cable_car subway aircraft wheelchair scooter drone" speed="3.65" length="2.34" shape="926.75,547.59 925.88,547.36 924.86,546.34"/>
    </edge>
    <edge id=":3555395938_w0" function="walkingarea">
        <lane id=":3555395938_w0_0" index="0" allow="pedestrian" speed="2.78" length="6.50" width="12.80" shape="920.21,547.56 932.77,545.07 932.70,544.75 920.16,547.30"/>
    </edge>
    <edge id=":3666322783_0" function="internal">
        <lane id=":3666322783_0_0" index="0" disallow="tram rail_urban rail rail_electric rail_fast ship container cable_car subway aircraft wheelchair scooter drone" speed="27.78" length="4.32" shape="918.35,503.67 914.79,501.28"/>
        <lane id=":3666322783_0_1" index="1" disallow="tram rail_urban rail rail_electric rail_fast ship container cable_car subway aircraft wheelchair scooter drone" speed="27.78" length="4.32" shape="921.53,503.28 917.95,500.80"/>
    </edge>
    <edge id=":3666322783_2" function="internal">
        <lane id=":3666322783_2_0" index="0" disallow="tram rail_urban rail rail_electric rail_fast ship container cable_car subway aircraft wheelchair scooter drone" speed="3.65" length="0.46" shape="921.12,500.31 920.92,500.72"/>
    </edge>
    <edge id=":3666322783_3" function="internal">
        <lane id=":3666322783_3_0" index="0" disallow="tram rail_urban rail rail_electric rail_fast ship container cable_car subway aircraft wheelchair scooter drone" speed="3.65" length="4.22" shape="920.92,500.72 920.51,501.61 919.78,502.13 918.93,501.86 917.95,500.80"/>
    </edge>
    <edge id=":3666322783_w0" function="walkingarea">
        <lane id=":3666322783_w0_0" index="0" allow="pedestrian" speed="2.78" length="6.99" width="12.80" shape="916.77,503.87 923.12,503.08 925.86,499.57 913.21,501.53"/>
    </edge>
    <edge id=":4438749967_0" function="internal">
        <lane id=":4438749967_0_0" index="0" disallow="tram rail_urban rail rail_electric rail_fast ship container cable_car subway aircraft wheelchair scooter drone" speed="27.78" length="0.20" shape="947.69,677.30 947.67,677.20"/>
        <lane id=":4438749967_0_1" index="1" disallow="tram rail_urban rail rail_electric rail_fast ship container cable_car subway aircraft wheelchair scooter drone" speed="27.78" length="0.20" shape="950.86,676.86 950.81,676.57"/>
    </edge>
    <edge id=":4438749967_2" function="internal">
        <lane id=":4438749967_2_0" index="0" disallow="tram rail_urban rail rail_electric rail_fast ship container cable_car subway aircraft wheelchair scooter drone" speed="3.65" length="2.34" shape="950.86,676.86 951.49,675.56 952.23,675.06"/>
    </edge>
    <edge id=":4438749967_6" function="internal">
        <lane id=":4438749967_6_0" index="0" disallow="tram rail_urban rail rail_electric rail_fast ship container cable_car subway aircraft wheelchair scooter drone" speed="3.65" length="2.34" shape="952.23,675.06 953.08,675.35 954.03,676.43"/>
    </edge>
    <edge id=":4438749967_3" function="internal">
        <lane id=":4438749967_3_0" index="0" disallow="tram rail_urban rail rail_electric rail_fast ship container cable_car subway aircraft wheelchair scooter drone" speed="27.78" length="0.59" shape="957.09,675.32 957.20,675.99"/>
        <lane id=":4438749967_3_1" index="1" disallow="tram rail_urban rail rail_electric rail_fast ship container cable_car subway aircraft wheelchair scooter drone" speed="27.78" length="0.59" shape="953.95,675.94 954.03,676.43"/>
    </edge>
    <edge id=":4438749967_5" function="internal">
        <lane id=":4438749967_5_0" index="0" disallow="tram rail_urban rail rail_electric rail_fast ship container cable_car subway aircraft wheelchair scooter drone" speed="3.65" length="2.34" shape="953.95,675.94 953.40,677.28 952.70,677.83"/>
    </edge>
    <edge id=":4438749967_7" function="internal">
        <lane id=":4438749967_7_0" index="0" disallow="tram rail_urban rail rail_electric rail_fast ship container cable_car subway aircraft wheelchair scooter drone" speed="3.65" length="2.34" shape="952.70,677.83 951.83,677.59 950.81,676.57"/>
    </edge>
    <edge id=":4438749967_w0" function="walkingarea">
        <lane id=":4438749967_w0_0" index="0" allow="pedestrian" speed="2.78" length="6.53" width="12.80" shape="946.11,677.51 958.79,675.77 958.66,675.00 946.11,677.51"/>
    </edge>
    <edge id=":5022447546_0" function="internal">
        <lane id=":5022447546_0_0" index="0" disallow="tram rail_urban rail rail_electric rail_fast ship container cable_car subway aircraft wheelchair scooter drone" speed="3.65" length="4.67" shape="608.67,451.05 607.46,450.26 607.06,449.46 607.46,448.66 608.65,447.85"/>
    </edge>
    <edge id=":5022447546_w0" function="walkingarea">
        <lane id=":5022447546_w0_0" index="0" allow="pedestrian" speed="2.78" length="9.60" width="12.80" shape="608.66,449.45 608.62,443.05 608.70,455.85 608.66,449.45"/>
    </edge>
    <edge id=":5179030926_0" function="internal">
        <lane id=":5179030926_0_0" index="0" disallow="tram rail_urban rail rail_electric rail_fast ship container cable_car subway aircraft wheelchair scooter drone" speed="6.41" length="4.69" shape="767.73,324.66 766.89,324.84 766.10,325.21 765.35,325.79 764.66,326.56"/>
        <lane id=":5179030926_0_1" index="1" disallow="tram rail_urban rail rail_electric rail_fast ship container cable_car subway aircraft wheelchair scooter drone" speed="7.77" length="4.69" shape="767.73,324.66 766.52,324.58 764.78,324.37 763.12,324.29 762.12,324.61"/>
    </edge>
    <edge id=":5179030926_2" function="internal">