<additional>
    <tazs>
        <taz id="1" edges="-277166430"/>
        <taz id="2" edges="277166430"/>
        <taz id="3" edges="-533904625"/>
        <taz id="4" edges="533904625"/>
        <taz id="5" edges="336600790#3"/>
        <taz id="6" edges="-336600790#3"/>
        <taz id="7" edges="336600790#2"/>
        <taz id="8" edges="-336600790#2"/>
        <taz id="9" edges="602862812#0"/>
        <taz id="10" edges="-602862812#0"/>
        <taz id="11" edges="336600790#1"/>
        <taz id="12" edges="-336600790#1"/>
        <taz id="13" edges="336600790#0"/>
        <taz id="14" edges="-336600790#0"/>
    </tazs>
</additional>
